7
-1 1
C    2.020324905124    0.762652608896    2.860764633379
C    1.034324905124    0.197652608896    1.889764633379
O    0.155324905124    0.986652608896    1.405764633379
O    1.100324905124   -1.010347391104    1.638764633379
H    1.543324905124    0.705652608896    3.841764633379
H    2.161324905124    1.829652608896    2.690764633379
H    2.970974905124    0.218619608896    2.962242633379
